#######################################################################
#
#                 Cambridge Crystallographic Data Centre
#                                CCDC 
#
#######################################################################
#
# If this CIF has been generated from an entry in the Cambridge 
# Structural Database, then it will include bibliographic, chemical, 
# crystal, experimental, refinement or atomic coordinate data resulting 
# from the CCDC's data processing and validation procedures.
#
#######################################################################
data_WAJZUE
_symmetry_space_group_name_H-M    "P 1"
_symmetry_int_tables_number 1
loop_
_symmetry_equiv_pos_as_xyz
'x, y, z'
_cell_length_a                   11.489(2)
_cell_length_b                   22.733(5)
_cell_length_c                   8.156(2)
_cell_angle_alpha                90
_cell_angle_beta                 90
_cell_angle_gamma                90
_cell_volume                     2130.18
loop_
_atom_site_label
_atom_site_type_symbol
_atom_site_fract_x
_atom_site_fract_y
_atom_site_fract_z
_atom_site_B_iso_or_equiv
Br1       Br        0.06709        0.19491        0.88381        1.000          
Br2       Br        0.06709        0.30509        0.38381        1.000          
Br3       Br        0.43291        0.69491        0.88381        1.000          
Br4       Br        0.43291        0.80509        0.38381        1.000          
Br5       Br        0.56709        0.19491        0.61619        1.000          
Br6       Br        0.56709        0.30509        0.11619        1.000          
Br7       Br        0.93291        0.69491        0.61619        1.000          
Br8       Br        0.93291        0.80509        0.11619        1.000          
C1        C         0.0042         0.63258        0.4821         1.000          
C2        C         0.0042         0.86742        0.9821         1.000          
C3        C         0.0513         0.6596         0.3253         1.000          
C4        C         0.0513         0.8404         0.8253         1.000          
C5        C         0.0535         0.5712         0.7403         1.000          
C6        C         0.0535         0.9288         0.2403         1.000          
C7        C         0.059          0.6075         0.9012         1.000          
C8        C         0.059          0.8925         0.4012         1.000          
C9        C         0.0987         0.59869        0.578          1.000          
C10       C         0.0987         0.90131        0.078          1.000          
C11       C         0.1417         0.52908        0.8228         1.000          
C12       C         0.1417         0.97092        0.3228         1.000          
C13       C         0.1596         0.6968         0.3524         1.000          
C14       C         0.1596         0.8032         0.8524         1.000          
C15       C         0.1607         0.5697         0.964          1.000          
C16       C         0.1607         0.9303         0.464          1.000          
C17       C         0.2083         0.63515        0.5989         1.000          
C18       C         0.2083         0.86485        0.0989         1.000          
C19       C         0.2467         0.161          0.4388         1.000          
C20       C         0.2467         0.339          0.9388         1.000          
C21       C         0.2533         0.661          0.4388         1.000          
C22       C         0.2533         0.839          0.9388         1.000          
C23       C         0.2917         0.13515        0.5989         1.000          
C24       C         0.2917         0.36485        0.0989         1.000          
C25       C         0.3393         0.0697         0.964          1.000          
C26       C         0.3393         0.4303         0.464          1.000          
C27       C         0.3404         0.1968         0.3524         1.000          
C28       C         0.3404         0.3032         0.8524         1.000          
C29       C         0.3583         0.02908        0.8228         1.000          
C30       C         0.3583         0.47092        0.3228         1.000          
C31       C         0.4013         0.09869        0.578          1.000          
C32       C         0.4013         0.40131        0.078          1.000          
C33       C         0.441          0.1075         0.9012         1.000          
C34       C         0.441          0.3925         0.4012         1.000          
C35       C         0.4465         0.0712         0.7403         1.000          
C36       C         0.4465         0.4288         0.2403         1.000          
C37       C         0.4487         0.1596         0.3253         1.000          
C38       C         0.4487         0.3404         0.8253         1.000          
C39       C         0.4958         0.13258        0.4821         1.000          
C40       C         0.4958         0.36742        0.9821         1.000          
C41       C         0.5042         0.63258        0.0179         1.000          
C42       C         0.5042         0.86742        0.5179         1.000          
C43       C         0.5513         0.6596         0.1747         1.000          
C44       C         0.5513         0.8404         0.6747         1.000          
C45       C         0.5535         0.5712         0.7597         1.000          
C46       C         0.5535         0.9288         0.2597         1.000          
C47       C         0.559          0.6075         0.5988         1.000          
C48       C         0.559          0.8925         0.0988         1.000          
C49       C         0.5987         0.59869        0.922          1.000          
C50       C         0.5987         0.90131        0.422          1.000          
C51       C         0.6417         0.52908        0.6772         1.000          
C52       C         0.6417         0.97092        0.1772         1.000          
C53       C         0.6596         0.6968         0.1476         1.000          
C54       C         0.6596         0.8032         0.6476         1.000          
C55       C         0.6607         0.5697         0.536          1.000          
C56       C         0.6607         0.9303         0.036          1.000          
C57       C         0.7083         0.63515        0.9011         1.000          
C58       C         0.7083         0.86485        0.4011         1.000          
C59       C         0.7467         0.161          0.0612         1.000          
C60       C         0.7467         0.339          0.5612         1.000          
C61       C         0.7533         0.661          0.0612         1.000          
C62       C         0.7533         0.839          0.5612         1.000          
C63       C         0.7917         0.13515        0.9011         1.000          
C64       C         0.7917         0.36485        0.4011         1.000          
C65       C         0.8393         0.0697         0.536          1.000          
C66       C         0.8393         0.4303         0.036          1.000          
C67       C         0.8404         0.1968         0.1476         1.000          
C68       C         0.8404         0.3032         0.6476         1.000          
C69       C         0.8583         0.02908        0.6772         1.000          
C70       C         0.8583         0.47092        0.1772         1.000          
C71       C         0.9013         0.09869        0.922          1.000          
C72       C         0.9013         0.40131        0.422          1.000          
C73       C         0.941          0.1075         0.5988         1.000          
C74       C         0.941          0.3925         0.0988         1.000          
C75       C         0.9465         0.0712         0.7597         1.000          
C76       C         0.9465         0.4288         0.2597         1.000          
C77       C         0.9487         0.1596         0.1747         1.000          
C78       C         0.9487         0.3404         0.6747         1.000          
C79       C         0.9958         0.13258        0.0179         1.000          
C80       C         0.9958         0.36742        0.5179         1.000          
H1        H         0.0086         0.1839         0.2238         1.000          
H2        H         0.0086         0.3161         0.7238         1.000          
H3        H         0.0107         0.1042         0.5324         1.000          
H4        H         0.0107         0.3958         0.0324         1.000          
H5        H         0.0524         0.0116         0.8466         1.000          
H6        H         0.0524         0.4884         0.3466         1.000          
H7        H         0.0571         0.1046         0.048          1.000          
H8        H         0.0571         0.3954         0.548          1.000          
H9        H         0.0696         0.6283         0.2485         1.000          
H10       H         0.0696         0.8717         0.7485         1.000          
H11       H         0.0796         0.6484         0.884          1.000          
H12       H         0.0796         0.8516         0.384          1.000          
H13       H         0.14           0.7309         0.4182         1.000          
H14       H         0.14           0.7691         0.9182         1.000          
H15       H         0.1466         0.5519         0.0702         1.000          
H16       H         0.1466         0.9481         0.5702         1.000          
H17       H         0.1801         0.186          0.4613         1.000          
H18       H         0.1801         0.314          0.9613         1.000          
H19       H         0.1889         0.7105         0.2476         1.000          
H20       H         0.1889         0.7895         0.7476         1.000          
H21       H         0.1925         0.667          0.6749         1.000          
H22       H         0.1925         0.833          0.1749         1.000          
H23       H         0.1966         0.5474         0.4405         1.000          
H24       H         0.1966         0.9526         0.9405         1.000          
H25       H         0.2211         0.1294         0.3674         1.000          
H26       H         0.2211         0.3706         0.8674         1.000          
H27       H         0.2315         0.1107         0.6467         1.000          
H28       H         0.2315         0.3893         0.1467         1.000          
H29       H         0.2353         0.5897         0.9618         1.000          
H30       H         0.2353         0.9103         0.4618         1.000          
H31       H         0.2647         0.0897         0.9618         1.000          
H32       H         0.2647         0.4103         0.4618         1.000          
H33       H         0.2685         0.6107         0.6467         1.000          
H34       H         0.2685         0.8893         0.1467         1.000          
H35       H         0.2789         0.6294         0.3674         1.000          
H36       H         0.2789         0.8706         0.8674         1.000          
H37       H         0.3034         0.0474         0.4405         1.000          
H38       H         0.3034         0.4526         0.9405         1.000          
H39       H         0.3075         0.167          0.6749         1.000          
H40       H         0.3075         0.333          0.1749         1.000          
H41       H         0.3111         0.2105         0.2476         1.000          
H42       H         0.3111         0.2895         0.7476         1.000          
H43       H         0.3199         0.686          0.4613         1.000          
H44       H         0.3199         0.814          0.9613         1.000          
H45       H         0.3534         0.0519         0.0702         1.000          
H46       H         0.3534         0.4481         0.5702         1.000          
H47       H         0.36           0.2309         0.4182         1.000          
H48       H         0.36           0.2691         0.9182         1.000          
H49       H         0.4204         0.1484         0.884          1.000          
H50       H         0.4204         0.3516         0.384          1.000          
H51       H         0.4304         0.1283         0.2485         1.000          
H52       H         0.4304         0.3717         0.7485         1.000          
H53       H         0.4429         0.6046         0.048          1.000          
H54       H         0.4429         0.8954         0.548          1.000          
H55       H         0.4476         0.5116         0.8466         1.000          
H56       H         0.4476         0.9884         0.3466         1.000          
H57       H         0.4893         0.6042         0.5324         1.000          
H58       H         0.4893         0.8958         0.0324         1.000          
H59       H         0.4914         0.6839         0.2238         1.000          
H60       H         0.4914         0.8161         0.7238         1.000          
H61       H         0.5086         0.1839         0.2762         1.000          
H62       H         0.5086         0.3161         0.7762         1.000          
H63       H         0.5107         0.1042         0.9676         1.000          
H64       H         0.5107         0.3958         0.4676         1.000          
H65       H         0.5524         0.0116         0.6534         1.000          
H66       H         0.5524         0.4884         0.1534         1.000          
H67       H         0.5571         0.1046         0.452          1.000          
H68       H         0.5571         0.3954         0.952          1.000          
H69       H         0.5696         0.6283         0.2515         1.000          
H70       H         0.5696         0.8717         0.7515         1.000          
H71       H         0.5796         0.6484         0.616          1.000          
H72       H         0.5796         0.8516         0.116          1.000          
H73       H         0.64           0.7309         0.0818         1.000          
H74       H         0.64           0.7691         0.5818         1.000          
H75       H         0.6466         0.5519         0.4298         1.000          
H76       H         0.6466         0.9481         0.9298         1.000          
H77       H         0.6801         0.186          0.0387         1.000          
H78       H         0.6801         0.314          0.5387         1.000          
H79       H         0.6889         0.7105         0.2524         1.000          
H80       H         0.6889         0.7895         0.7524         1.000          
H81       H         0.6925         0.667          0.8251         1.000          
H82       H         0.6925         0.833          0.3251         1.000          
H83       H         0.6966         0.5474         0.0595         1.000          
H84       H         0.6966         0.9526         0.5595         1.000          
H85       H         0.7211         0.1294         0.1326         1.000          
H86       H         0.7211         0.3706         0.6326         1.000          
H87       H         0.7315         0.1107         0.8533         1.000          
H88       H         0.7315         0.3893         0.3533         1.000          
H89       H         0.7353         0.5897         0.5382         1.000          
H90       H         0.7353         0.9103         0.0382         1.000          
H91       H         0.7647         0.0897         0.5382         1.000          
H92       H         0.7647         0.4103         0.0382         1.000          
H93       H         0.7685         0.6107         0.8533         1.000          
H94       H         0.7685         0.8893         0.3533         1.000          
H95       H         0.7789         0.6294         0.1326         1.000          
H96       H         0.7789         0.8706         0.6326         1.000          
H97       H         0.8034         0.0474         0.0595         1.000          
H98       H         0.8034         0.4526         0.5595         1.000          
H99       H         0.8075         0.167          0.8251         1.000          
H100      H         0.8075         0.333          0.3251         1.000          
H101      H         0.8111         0.2105         0.2524         1.000          
H102      H         0.8111         0.2895         0.7524         1.000          
H103      H         0.8199         0.686          0.0387         1.000          
H104      H         0.8199         0.814          0.5387         1.000          
H105      H         0.8534         0.0519         0.4298         1.000          
H106      H         0.8534         0.4481         0.9298         1.000          
H107      H         0.86           0.2309         0.0818         1.000          
H108      H         0.86           0.2691         0.5818         1.000          
H109      H         0.9204         0.1484         0.616          1.000          
H110      H         0.9204         0.3516         0.116          1.000          
H111      H         0.9304         0.1283         0.2515         1.000          
H112      H         0.9304         0.3717         0.7515         1.000          
H113      H         0.9429         0.6046         0.452          1.000          
H114      H         0.9429         0.8954         0.952          1.000          
H115      H         0.9476         0.5116         0.6534         1.000          
H116      H         0.9476         0.9884         0.1534         1.000          
H117      H         0.9893         0.6042         0.9676         1.000          
H118      H         0.9893         0.8958         0.4676         1.000          
H119      H         0.9914         0.6839         0.2762         1.000          
H120      H         0.9914         0.8161         0.7762         1.000          
O1        O         0.0571         0.04482        0.7805         1.000          
O2        O         0.0571         0.45518        0.2805         1.000          
O3        O         0.1199         0.54806        0.4732         1.000          
O4        O         0.1199         0.95194        0.9732         1.000          
O5        O         0.1689         0.02088        0.2969         1.000          
O6        O         0.1689         0.47912        0.7969         1.000          
O7        O         0.3311         0.52088        0.2969         1.000          
O8        O         0.3311         0.97912        0.7969         1.000          
O9        O         0.3801         0.04806        0.4732         1.000          
O10       O         0.3801         0.45194        0.9732         1.000          
O11       O         0.4429         0.54482        0.7805         1.000          
O12       O         0.4429         0.95518        0.2805         1.000          
O13       O         0.5571         0.04482        0.7195         1.000          
O14       O         0.5571         0.45518        0.2195         1.000          
O15       O         0.6199         0.54806        0.0268         1.000          
O16       O         0.6199         0.95194        0.5268         1.000          
O17       O         0.6689         0.02088        0.2031         1.000          
O18       O         0.6689         0.47912        0.7031         1.000          
O19       O         0.8311         0.52088        0.2031         1.000          
O20       O         0.8311         0.97912        0.7031         1.000          
O21       O         0.8801         0.04806        0.0268         1.000          
O22       O         0.8801         0.45194        0.5268         1.000          
O23       O         0.9429         0.54482        0.7195         1.000          
O24       O         0.9429         0.95518        0.2195         1.000          


#END