
#######################################################################
#
#                 Cambridge Crystallographic Data Centre
#                                CCDC 
#
#######################################################################
#
# If this CIF has been generated from an entry in the Cambridge 
# Structural Database, then it will include bibliographic, chemical, 
# crystal, experimental, refinement or atomic coordinate data resulting 
# from the CCDC's data processing and validation procedures.
#
#######################################################################

data_FUYYON04
_chemical_formula_moiety         'H10 B4'
_chemical_name_systematic        Tetraborane(10)
_symmetry_cell_setting           monoclinic
_symmetry_space_group_name_H-M   'P 21/n'
_symmetry_Int_Tables_number      14
_space_group_name_Hall           '-P 2yn'
loop_
_symmetry_equiv_pos_site_id
_symmetry_equiv_pos_as_xyz
1 x,y,z
2 1/2-x,1/2+y,1/2-z
3 -x,-y,-z
4 1/2+x,1/2-y,1/2+z
_cell_length_a                   8.68(2)
_cell_length_b                   10.14(3)
_cell_length_c                   5.78(2)
_cell_angle_alpha                90
_cell_angle_beta                 105.9(3)
_cell_angle_gamma                90
_cell_volume                     489.265
_exptl_crystal_colour            colorless
_cell_formula_units_Z            4
loop_
_atom_site_label
_atom_site_type_symbol
_atom_site_fract_x
_atom_site_fract_y
_atom_site_fract_z
B1 B 0.2772(3) 0.4141(2) 0.1731(4)
B2 B 0.1160(3) 0.2969(2) 0.1759(4)
B3 B 0.2677(3) 0.2713(2) 0.0135(4)
B4 B 0.2437(3) 0.4272(3) -0.1553(4)
H1 H 0.392(3) 0.432(2) 0.316(4)
H2 H 0.169(3) 0.425(3) 0.246(5)
H3 H 0.134(2) 0.241(2) 0.345(4)
H4 H -0.001(3) 0.323(2) 0.069(4)
H5 H 0.149(3) 0.214(3) 0.012(4)
H6 H 0.368(3) 0.211(2) 0.070(4)
H7 H 0.229(3) 0.295(3) -0.186(4)
H8 H 0.350(3) 0.459(2) -0.204(4)
H9 H 0.131(3) 0.451(2) -0.259(4)
H10 H 0.245(3) 0.498(3) 0.033(5)
loop_
_geom_bond_atom_site_label_1
_geom_bond_atom_site_label_2
_geom_bond_site_symmetry_1
_geom_bond_site_symmetry_2
B1 B2 1_555 1_555
B2 B3 1_555 1_555
B3 B1 1_555 1_555
B4 B1 1_555 1_555
H1 B1 1_555 1_555
H2 B1 1_555 1_555
H3 B2 1_555 1_555
H4 B2 1_555 1_555
H5 B2 1_555 1_555
H6 B3 1_555 1_555
H7 B3 1_555 1_555
H8 B4 1_555 1_555
H9 B4 1_555 1_555
H10 B1 1_555 1_555
B2 H2 1_555 1_555
B3 H5 1_555 1_555
B3 B4 1_555 1_555
B4 H7 1_555 1_555
B4 H10 1_555 1_555

#END
