
#######################################################################
#
#                 Cambridge Crystallographic Data Centre
#                                CCDC 
#
#######################################################################
#
# If this CIF has been generated from an entry in the Cambridge 
# Structural Database, then it will include bibliographic, chemical, 
# crystal, experimental, refinement or atomic coordinate data resulting 
# from the CCDC's data processing and validation procedures.
#
#######################################################################

data_FUYYUT01
_chemical_formula_moiety         'H11 B5'
_chemical_name_systematic        Pentaborane(11)
_symmetry_cell_setting           monoclinic
_symmetry_space_group_name_H-M   'P 21/n'
_symmetry_Int_Tables_number      14
_space_group_name_Hall           '-P 2yn'
loop_
_symmetry_equiv_pos_site_id
_symmetry_equiv_pos_as_xyz
1 x,y,z
2 1/2-x,1/2+y,1/2-z
3 -x,-y,-z
4 1/2+x,1/2-y,1/2+z
_cell_length_a                   6.76(2)
_cell_length_b                   8.51(3)
_cell_length_c                   10.14(3)
_cell_angle_alpha                90
_cell_angle_beta                 94.3(3)
_cell_angle_gamma                90
_cell_volume                     581.688
_chemical_melting_point          -129deg.C
_cell_formula_units_Z            4
loop_
_atom_site_label
_atom_site_type_symbol
_atom_site_fract_x
_atom_site_fract_y
_atom_site_fract_z
B1 B 0.290 0.106 0.318
B2 B 0.133 0.105 0.175
B3 B 0.024 0.047 0.317
B4 B -0.109 0.164 0.208
B5 B -0.120 0.216 0.376
H1 H 0.395 0.019 0.331
H2 H 0.324 0.204 0.383
H3 H 0.161 0.031 0.108
H4 H -0.039 -0.068 0.334
H5 H -0.236 0.112 0.152
H6 H -0.014 0.303 0.423
H7 H -0.262 0.173 0.414
H8 H 0.274 0.182 0.218
H9 H 0.015 0.206 0.144
H10 H -0.153 0.300 0.262
H11 H 0.069 0.107 0.398
loop_
_geom_bond_atom_site_label_1
_geom_bond_atom_site_label_2
_geom_bond_site_symmetry_1
_geom_bond_site_symmetry_2
B1 B2 1_555 1_555
B2 B3 1_555 1_555
B3 B1 1_555 1_555
B4 B2 1_555 1_555
B5 B3 1_555 1_555
H1 B1 1_555 1_555
H2 B1 1_555 1_555
H3 B2 1_555 1_555
H4 B3 1_555 1_555
H5 B4 1_555 1_555
H6 B5 1_555 1_555
H7 B5 1_555 1_555
H8 B1 1_555 1_555
H9 B2 1_555 1_555
H10 B4 1_555 1_555
H11 B3 1_555 1_555
B2 H8 1_555 1_555
B3 B4 1_555 1_555
B4 B5 1_555 1_555
B4 H9 1_555 1_555
B5 H10 1_555 1_555

#END
