
#######################################################################
#
#                 Cambridge Crystallographic Data Centre
#                                CCDC 
#
#######################################################################
#
# If this CIF has been generated from an entry in the Cambridge 
# Structural Database, then it will include bibliographic, chemical, 
# crystal, experimental, refinement or atomic coordinate data resulting 
# from the CCDC's data processing and validation procedures.
#
#######################################################################

data_BERYAZ
_chemical_formula_moiety         'C15 H20 O5'
_chemical_name_systematic        
'(+-)-7,7-Dicyclopropyl-6-oxabicyclo(3.2.1)octane-1,5-dicarboxylic acid'
_symmetry_cell_setting           triclinic
_symmetry_space_group_name_H-M   'P -1'
_symmetry_Int_Tables_number      2
_space_group_name_Hall           '-P 1'
loop_
_symmetry_equiv_pos_site_id
_symmetry_equiv_pos_as_xyz
1 x,y,z
2 -x,-y,-z
_cell_length_a                   8.0000(5)
_cell_length_b                   8.0060(5)
_cell_length_c                   12.8420(8)
_cell_angle_alpha                96.6450(19)
_cell_angle_beta                 92.520(2)
_cell_angle_gamma                119.600(3)
_cell_volume                     705.473
_exptl_crystal_colour            colorless
_exptl_crystal_description       prism
_cell_formula_units_Z            2
_exptl_crystal_recrystallization_method 
'water/carbon tetrachloride/atmosphere of methane'
loop_
_atom_site_label
_atom_site_type_symbol
_atom_site_fract_x
_atom_site_fract_y
_atom_site_fract_z
O1 O 0.0269(2) -0.0860(2) 0.31713(12)
O2 O -0.0940(2) -0.3881(3) 0.42171(15)
H1 H -0.1202 -0.4855 0.4509
O3 O 0.4032(3) -0.1285(3) 0.09343(13)
O4 O 0.4163(3) 0.1497(3) 0.07008(14)
H2 H 0.4662 0.1358 0.0159
O5 O 0.2062(3) -0.3014(3) 0.48586(15)
C1 C 0.1745(3) -0.0986(3) 0.37712(17)
C2 C 0.2983(3) 0.0873(3) 0.45722(18)
H4 H 0.2167 0.1014 0.5094
H5 H 0.4023 0.0775 0.4956
C3 C 0.3881(3) 0.2664(3) 0.40163(18)
H6 H 0.5039 0.3716 0.4475
H7 H 0.2940 0.3117 0.3939
C4 C 0.4478(3) 0.2347(3) 0.29236(18)
H8 H 0.5797 0.2531 0.3012
H9 H 0.4524 0.3342 0.2516
C5 C 0.3077(3) 0.0293(3) 0.22866(17)
C6 C 0.2999(3) -0.1194(3) 0.29535(17)
H10 H 0.4299 -0.0837 0.3281
H11 H 0.2368 -0.2522 0.2543
C7 C 0.3794(3) 0.0083(3) 0.12357(17)
C8 C 0.0873(3) -0.2756(3) 0.43216(17)
C9 C 0.0893(3) -0.0245(3) 0.21683(17)
C10 C -0.0332(3) -0.1919(3) 0.12740(18)
H12 H -0.0012 -0.1576 0.0556
C11 C -0.2447(4) -0.3273(4) 0.1315(2)
H13 H -0.2990 -0.3141 0.1977
H14 H -0.3339 -0.3646 0.0662
C12 C -0.1079(4) -0.4032(4) 0.1333(2)
H15 H -0.1125 -0.4874 0.0690
H16 H -0.0776 -0.4369 0.2006
C13 C 0.0648(4) 0.1476(3) 0.19834(19)
H17 H 0.1567 0.2320 0.1515
C14 C 0.0097(5) 0.2554(4) 0.2789(2)
H18 H 0.0718 0.3981 0.2823
H19 H -0.0171 0.2093 0.3479
C15 C -0.1309(4) 0.1295(4) 0.1846(3)
H20 H -0.1554 0.1944 0.1296
H21 H -0.2444 0.0055 0.1952
H3? H 0.1465 -0.4065 0.5097
loop_
_geom_bond_atom_site_label_1
_geom_bond_atom_site_label_2
_geom_bond_site_symmetry_1
_geom_bond_site_symmetry_2
O1 C1 1_555 1_555
O2 H1 1_555 1_555
O3 C7 1_555 1_555
O4 H2 1_555 1_555
O5 C8 1_555 1_555
C1 C2 1_555 1_555
C2 H4 1_555 1_555
H5 C2 1_555 1_555
C3 C2 1_555 1_555
H6 C3 1_555 1_555
H7 C3 1_555 1_555
C4 C3 1_555 1_555
H8 C4 1_555 1_555
H9 C4 1_555 1_555
C5 C4 1_555 1_555
C6 C1 1_555 1_555
H10 C6 1_555 1_555
H11 C6 1_555 1_555
C7 O4 1_555 1_555
C8 O2 1_555 1_555
C9 O1 1_555 1_555
C10 C9 1_555 1_555
H12 C10 1_555 1_555
C11 C10 1_555 1_555
H13 C11 1_555 1_555
H14 C11 1_555 1_555
C12 C10 1_555 1_555
H15 C12 1_555 1_555
H16 C12 1_555 1_555
C13 C9 1_555 1_555
H17 C13 1_555 1_555
C14 C13 1_555 1_555
H18 C14 1_555 1_555
H19 C14 1_555 1_555
C15 C13 1_555 1_555
H20 C15 1_555 1_555
H21 C15 1_555 1_555
C1 C8 1_555 1_555
C5 C6 1_555 1_555
C5 C7 1_555 1_555
C5 C9 1_555 1_555
C11 C12 1_555 1_555
C14 C15 1_555 1_555

#END
