
#######################################################################
#
#                 Cambridge Crystallographic Data Centre
#                                CCDC 
#
#######################################################################
#
# If this CIF has been generated from an entry in the Cambridge 
# Structural Database, then it will include bibliographic, chemical, 
# crystal, experimental, refinement or atomic coordinate data resulting 
# from the CCDC's data processing and validation procedures.
#
#######################################################################

data_WACQUP
_chemical_formula_moiety         '(C1 H5 N2 1+)n,n(I3 Sn1 1-)'
_chemical_name_systematic        'catena-[Formamidinium tris(\m~2~-iodo)-tin]'
_symmetry_cell_setting           cubic
_symmetry_space_group_name_H-M   'P m -3 m'
_symmetry_Int_Tables_number      221
_space_group_name_Hall           '-P 4 2 3'
loop_
_symmetry_equiv_pos_site_id
_symmetry_equiv_pos_as_xyz
1 x,y,z
2 -x,-y,z
3 -x,y,-z
4 x,-y,-z
5 z,x,y
6 z,-x,-y
7 -z,-x,y
8 -z,x,-y
9 y,z,x
10 -y,z,-x
11 y,-z,-x
12 -y,-z,x
13 y,x,-z
14 -y,-x,-z
15 y,-x,z
16 -y,x,z
17 x,z,-y
18 -x,z,y
19 -x,-z,-y
20 x,-z,y
21 z,y,-x
22 z,-y,x
23 -z,y,x
24 -z,-y,-x
25 -x,-y,-z
26 x,y,-z
27 x,-y,z
28 -x,y,z
29 -z,-x,-y
30 -z,x,y
31 z,x,-y
32 z,-x,y
33 -y,-z,-x
34 y,-z,x
35 -y,z,x
36 y,z,-x
37 -y,-x,z
38 y,x,z
39 -y,x,-z
40 y,-x,-z
41 -x,-z,y
42 x,-z,-y
43 x,z,y
44 -x,z,-y
45 -z,-y,x
46 -z,y,-x
47 z,-y,-x
48 z,y,x
_cell_length_a                   6.321(4)
_cell_length_b                   6.321(4)
_cell_length_c                   6.321(4)
_cell_angle_alpha                90
_cell_angle_beta                 90
_cell_angle_gamma                90
_cell_volume                     252.556
_exptl_crystal_colour            black
_exptl_crystal_description       block
_cell_formula_units_Z            1
loop_
_atom_site_label
_atom_site_type_symbol
_atom_site_fract_x
_atom_site_fract_y
_atom_site_fract_z
C1 C 0.0000 1.0000 0.0000
N1 N 0.0000 1.159(5) 0.0000
N1A N 0.0000 0.841(5) 0.0000
N1D N 0.0000 1.0000 0.159(5)
N1E N 0.0000 1.0000 -0.159(5)
N1H N 0.159(5) 1.0000 0.0000
N1I N -0.159(5) 1.0000 0.0000
I1 I 0.5000 1.0000 0.5000
Sn1 Sn 0.5000 0.5000 0.5000
I1_2 I 0.5000 0.0000 0.5000
I1D I 0.5000 0.5000 1.0000
I1D_2 I 0.5000 0.5000 0.0000
I1H I 0.0000 0.5000 0.5000
I1H_2 I 1.0000 0.5000 0.5000
Sn1_2 Sn 0.5000 -0.5000 0.5000
Sn1_3 Sn 0.5000 0.5000 1.5000
Sn1_4 Sn 0.5000 1.5000 0.5000
loop_
_geom_bond_atom_site_label_1
_geom_bond_atom_site_label_2
_geom_bond_site_symmetry_1
_geom_bond_site_symmetry_2
I1 Sn1 1_555 1_555
Sn1 I1_2 1_555 1_555
C1 N1 1_555 1_555
N1 N1D 1_555 1_555
I1_2 Sn1_2 1_555 1_555
I1D Sn1 1_555 1_555
I1D_2 Sn1 1_555 1_555
I1H Sn1 1_555 1_555
I1H_2 Sn1 1_555 1_555
Sn1_3 I1D 1_555 1_555
Sn1_4 I1 1_555 1_555
N1A C1 1_555 1_555
N1D C1 1_555 1_555
N1E C1 1_555 1_555
N1H C1 1_555 1_555
N1I C1 1_555 1_555
N1 N1E 1_555 1_555
N1 N1H 1_555 1_555
N1 N1I 1_555 1_555
N1A N1D 1_555 1_555
N1A N1E 1_555 1_555
N1A N1H 1_555 1_555
N1A N1I 1_555 1_555
N1D N1H 1_555 1_555
N1D N1I 1_555 1_555
N1E N1H 1_555 1_555
N1E N1I 1_555 1_555

#END
